test/test_files/validation_tests/case6468rte_resqlim.m
function mpc = case6468rte_resqlim
%CASE6468RTE_RESQLIM

%% MATPOWER Case Format : Version 2
mpc.version = '2';

%%-----  Power Flow Data  -----%%
%% system MVA base
mpc.baseMVA = 100;

%% bus data
%	bus_i	type	Pd	Qd	Gs	Bs	area	Vm	Va	baseKV	zone	Vmax	Vmin
mpc.bus = [
	1	1	0	0	0	0	1	0.98015625	-17.2014016	45	1	1	0.888889;
	2	1	0	0	0	0	1	1.03318384	-12.8222341	63	1	1.06349	0.936508;
	3	1	11.7	-1.2	0	0	1	0.982831127	-9.74773802	63	1	1.07937	0.952381;
	4	1	33.8	-8.2	0	0	1	1.06598446	-4.09730995	90	1	1.08889	0.933333;
	5	1	11	-0.9	0	0	1	0.981068016	-30.1680539	63	1	1.06349	0.952381;
	6	1	13	4.3	0	0	1	1.03038021	-15.7611964	63	1	1.07937	0.920635;
	7	1	1	-0.2	0	0	1	1.05659018	-17.7879141	63	1	1.07937	0.920635;
	8	1	0.4	-4.4	0	0	1	1.06945544	-0.386174276	225	1	1.08889	0.888889;
	9	1	16.9	0	0	0	1	1.02859203	-21.7681743	63	1	1.06349	0.936508;
	10	1	0	0	0	0	1	1.06565101	-3.7299876	90	1	1.07778	0.922222;
	11	1	20	-3.1	0	0	1	1.06565078	-3.72998512	90	1	1.07778	0.922222;
	12	1	0	0	0	0	1	0.991365344	3.51019531	63	1	1.07937	0.952381;
	13	1	0	0	0	0	1	1.05402133	-2.55022319	380	1	1.10263	1.05084;
	14	1	37	3.6	0	0	1	1.04675168	-8.43715996	90	1	1.07778	0.977778;
	15	1	0	0	0	0	1	1.02110038	-21.3025712	63	1	1.07937	0.920635;
	16	1	10.3	1.5	0	0	1	1.04486326	-23.7921159	63	1	1.07937	0.920635;
	17	1	11.2	-0.6	0	0	1	1.04847326	-15.8103071	90	1	1.06667	0.977778;
	18	1	0	0	0	0	1	0.921170654	-11.2012371	45	1	1	0.888889;
	19	1	1	0	0	0	1	1.02411809	-12.9646127	63	1	1.06349	0.936508;
	20	1	2.3	-18.3	0	0	1	0.922003298	-11.2325143	45	1	1	0.888889;
	21	1	6.5	-1.9	0	0	1	1.03769567	-10.1249994	90	1	1.06667	0.977778;
	22	1	15.2	1.4	0	0	1	1.00162253	-4.76952068	63	1	1.07937	0.952381;
	23	1	29.1	4.6	0	0	1	1.00731353	-17.9265586	63	1	1.06349	0.936508;
	24	1	9.7	-2.8	0	0	1	1.06338607	-2.79643139	90	1	1.11111	0.955556;
	25	1	46.5	-6.1	0	0	1	1.09031201	-1.19387282	90	1	1.1	0.944444;
	26	1	20.5	4.7	0	0	1	1.02394376	-8.09320315	90	1	1.06667	0.977778;
	27	1	0	0	0	0	1	1.06605156	-4.31947967	225	1	1.08444	1.00444;
	28	1	0.4	0.9	0	0	1	1.02665453	-13.5225767	63	1	1.07937	0.952381;
	29	1	52.7	1.8	0	0	1	1.01149342	-22.9568371	63	1	1.06349	0.968254;
	30	1	29.8	-1.9	0	0	1	1.06357561	-3.78144947	90	1	1.08889	0.933333;
	31	1	0	0	0	0	1	1.02866871	-14.7853209	63	1	1.06349	0.936508;
	32	1	0	0	0	0	1	1.02498336	-9.69746361	150	1	1.10667	0.9;
	33	1	0	0	0	0	1	1.0392863	-11.3095181	225	1	1.08889	0.933333;
	34	1	0	0	0	0	1	1.03370725	-11.5367196	225	1	1.08889	0.933333;
	35	1	0	0	0	0	1	1.05362102	-7.9352539	380	1	1.10526	1.03947;
	36	1	0	0	0	0	1	1.05776907	-6.6294007	380	1	1.10526	1.03947;
	37	1	2.3	4.4	0	0	1	1.02524458	-17.4921406	63	1	1.07937	0.920635;
	38	1	7	-1	0	0	1	1.06079643	-4.03889262	63	1	1.09524	0.936508;
	39	1	35	-6.8	0	0	1	1.01483672	-16.5757359	90	1	1.07778	0.977778;
	40	1	31.7	0.5	0	0	1	1.04006896	-7.03914548	90	1	1.07778	0.977778;
	41	1	0	0	0	0	1	1.08025126	-5.6089699	225	1	1.09194	1.00444;
	42	1	0	0	0	0	1	1.09538824	7.68145627	63	1	1.13061	0.952381;
	43	1	3.4	2.8	0	0	1	1.05150254	-4.6908059	90	1	1.07778	0.977778;
	44	1	12.4	0	0	0	1	1.00460812	-30.079713	63	1	1.06349	0.952381;
	45	1	3	2.1	0	0	1	1.01604228	-12.8458914	90	1	1.06667	0.977778;
	46	1	0	0	0	0	1	1.00764665	-14.7019545	63	1	1.06349	0.936508;
	47	2	0	0	0	0	1	1.00607089	-14.6953631	63	1	1.06349	0.936508;
	48	1	34	1.3	0	0	1	1.04939437	-4.09664612	90	1	1.07778	0.922222;
	49	1	6.9	-2.5	0	0	1	1.03366245	-11.0074309	63	1	1.06349	0.936508;
	50	1	0	0	0	0	1	1.05666163	-16.9493331	63	1	1.07436	0.936508;
	51	1	0	0	0	0	1	1.04258328	-12.6043117	225	1	1.08889	0.933333;
	52	1	5.8	2.5	0	0	1	1.02064119	-14.5783342	90	1	1.06667	0.977778;
	53	1	0.2	-0.3	0	0	1	1.02141165	-5.78427369	63	1	1.04762	0.952381;
	54	1	0.9	-0.8	0	0	1	1.04552056	-5.5124957	90	1	1.06667	0.977778;
	55	1	30.1	5.4	0	0	1	1.0686666	-6.18879214	225	1	1.08889	1.00444;
	56	1	42.2	6.3	0	0	1	1.05082942	-4.96279604	225	1	1.08889	1.00444;
	57	1	0	0	0	0	1	1.04348366	-18.944119	63	1	1.07937	0.920635;
	58	1	107.6	28.8	0	0	1	1.06847778	-6.20032714	225	1	1.08889	1.00444;
	59	1	5.2	1.4	0	0	1	0.989788724	-7.53967614	63	1	1.07937	0.952381;
	60	1	0	0	0	0	1	0.99894057	-2.08665191	63	1	1.07937	0.952381;
	61	1	29.6	5.1	0	0	1	0.997515477	-3.98113882	63	1	1.07937	0.952381;
	62	1	0	0	0	0	1	0.999693552	-1.80162213	63	1	1.07937	0.952381;
	63	1	12.8	2	0	0	1	0.993778863	4.28880523	63	1	1.07937	0.952381;
	64	1	47.2	-0.7	0	0	1	1.07037365	1.72511732	225	1	1.08889	0.888889;
	65	1	10	2.9	0	0	1	1.00700748	-4.41636119	63	1	1.07937	0.952381;
	66	1	11.1	-9.3	0	0	1	1.04758124	-17.4972167	63	1	1.06349	0.936508;
	67	1	0	0	0	0	1	1.03546578	-8.61224316	63	1	1.07937	0.920635;
	68	1	41.1	-6.8	0	0	1	1.01820114	-13.5823441	63	1	1.06349	0.936508;
	69	1	14.4	-3.2	0	0	1	1.01000379	-33.9951441	63	1	1.06349	0.952381;
	70	1	8.7	0.6	0	0	1	1.00568625	3.77033591	63	1	1.07937	0.952381;
	71	1	55.8	10.7	0	0	1	1.0266983	-6.61543455	63	1	1.04762	0.952381;
	72	1	0	0	0	0	1	1.08576092	0.518380627	225	1	1.08889	1.00444;
	73	1	0	0	0	0	1	1.08576114	0.518759599	225	1	1.08889	1.00444;
	74	1	37.1	-8.7	0	0	1	1.07083605	1.79485256	225	1	1.08889	0.888889;
	75	1	19.3	1.4	0	0	1	1.0587594	-4.4957889	90	1	1.06825	0.977778;
	76	1	6.3	3.2	0	0	1	1.05305082	7.0570097	225	1	1.08889	0.986667;
	77	1	28.9	-5.2	0	0	1	1.03852858	-12.1363095	63	1	1.06349	0.936508;
	78	1	0	0	0	0	1	1.05236954	-21.3713162	63	1	1.07937	0.920635;
	79	1	0	0	0	0	1	1.02848954	-4.12880028	63	1	1.04762	0.952381;
	80	1	26.1	-1	0	0	1	1.07154915	-4.0738332	225	1	1.08889	1.00444;
	81	1	26.1	3.5	0	0	1	1.07155462	-4.07350312	225	1	1.08889	1.00444;
	82	1	9.8	-3.2	0	0	1	1.02804285	-11.471119	63	1	1.06349	0.936508;
	83	1	85	46.2	0	0	1	1.06322515	-5.4146329	225	1	1.08889	1.00444;
	84	1	-1	-1.1	0	0	1	0.99917069	-12.0435147	63	1	1.06349	0.936508;
	85	1	2.3	-0.8	0	0	1	1.04129835	-13.9050804	63	1	1.06349	0.936508;
	86	1	30.3	-3.7	0	0	1	1.01595578	-21.8058255	90	1	1.06667	0.977778;
	87	1	0	0	0	0	1	1.0036844	4.09396209	63	1	1.07937	0.952381;
	88	1	11.5	-3.8	0	0	1	1.03016187	-13.0349384	63	1	1.06349	0.936508;
	89	1	17.7	-4.9	0	0	1	1.05482201	-6.98229573	90	1	1.07778	0.977778;
	90	1	0.7	-0.3	0	0	1	0.921037082	-12.1407166	45	1	1	0.888889;
	91	1	0	0	0	0	1	0.921170654	-11.2012371	45	1	1	0.888889;
	92	1	24.7	0.4	0	0	1	1.0344944	-16.0181746	63	1	1.06349	0.968254;
	93	1	2.3	-2.5	0	0	1	0.952939949	-14.5587689	45	1	1	0.888889;
	94	1	13	-4.9	0	0	1	1.05350471	-6.94765416	90	1	1.06667	0.977778;
	95	1	38	3.8	0	0	1	1.02208727	-14.056121	90	1	1.06667	0.977778;
	96	1	0.9	-0.6	0	0	1	1.02561054	-12.8506344	63	1	1.06349	0.936508;
	97	1	47	0.8	0	0	1	1.04162244	-20.4493727	63	1	1.07937	0.920635;
	98	1	6.6	-2.2	0	0	1	1.0356067	-7.75620415	63	1	1.07937	0.952381;
	99	1	21.9	3.2	0	0	1	0.999888339	-3.53632078	63	1	1.07937	0.952381;
	100	1	46.3	7.4	0	0	1	1.01174839	-17.2353287	63	1	1.06349	0.936508;
	101	1	14	-1.5	0	0	1	0.999038425	-12.5075345	63	1	1.06349	0.936508;
	102	3	0	0	0	0	1	1.02	-18.8714842	63	1	1.07937	0.952381;
	103	1	13.2	-4	0	0	1	1.00797877	-2.14646401	63	1	1.07937	0.952381;
	104	1	0	0	0	0	1	1.04192876	0.379133529	225	1	1.08889	0.986667;
	105	1	28.5	-1.6	0	0	1	1.0694859	1.07526451	225	1	1.08889	0.888889;
	106	1	38.8	2.2	0	0	1	1.07953231	-2.38896524	90	1	1.1	0.944444;
	107	1	71.6	4.9	0	0	1	1.05939728	-23.719724	225	1	1.08444	1.00889;
	108	1	7.9	-4.6	0	0	1	1.06649552	-2.71240724	90	1	1.07778	0.977778;
	109	1	60.6	7.8	0	0	1	1.03671214	-13.1146045	63	1	1.06349	0.936508;
	110	1	0	0	0	0	1	1.02595631	-9.45086379	225	1	1.08889	0.933333;
	111	1	34.2	-7.2	0	0	1	1.00878728	-21.2506822	63	1	1.06349	0.968254;
	112	1	0	0	0	0	1	1.03087131	-7.1741668	63	1	1.04762	0.952381;
	113	1	0	0	0	0	1	1.06882775	-4.81604439	225	1	1.08889	1.00444;
	114	1	11.5	-1	0	0	1	1.0451541	-17.3658322	63	1	1.06349	0.936508;
	115	1	0	0	0	0	1	1.05403046	-2.55030657	380	1	1.10526	1.05085;
	116	1	0	0	0	0	1	1.05403046	-2.55030657	380	1	1.10526	1.05085;
	117	1	13.2	-2.2	0	0	1	1.01502686	-13.875613	63	1	1.07937	0.952381;
	118	1	2	0.8	0	0	1	1.06061781	-4.26477723	90	1	1.07012	0.977778;
	119	1	35.5	0.7	0	0	1	1.03035548	-6.56711302	63	1	1.06349	0.936508;
	120	1	29.9	-1.3	0	0	1	1.0182367	-17.2553428	63	1	1.06349	0.936508;
	121	1	15.3	3.7	0	0	1	1.04048156	-13.5906249	63	1	1.07937	0.920635;
	122	2	0	0	0	0	1	1.01018223	-3.14317875	63	1	1.07937	0.952381;
	123	1	9	2.7	0	0	1	1.00904652	-3.21417434	63	1	1.07937	0.952381;
	124	1	8.9	-4	0	0	1	1.04662494	-11.8828128	90	1	1.06667	0.977778;
	125	1	4.8	-3.1	0	0	1	1.02471619	-2.91947678	63	1	1.07937	0.952381;
	126	1	-0.3	0.5	0	0	1	1.04145852	-13.7305478	63	1	1.06349	0.936508;
	127	1	6.5	0.4	0	0	1	1.02831018	-8.61875164	63	1	1.04762	0.952381;
	128	1	13.9	5.6	0	0	1	1.02274397	-10.5610725	63	1	1.06349	0.968254;
	129	1	18.8	14.3	0	0	1	1.02016251	-9.33723889	63	1	1.06349	0.968254;
	130	1	0	0	0	0	1	1.04921513	-7.93926371	225	1	1.08444	1.00889;
	131	1	82	2	0	0	1	1.04584548	-17.3837086	225	1	1.08444	1.00889;
	132	2	11.9	0	0	0	1	1.03649561	-16.7268249	90	1	1.07778	0.922222;
	133	1	1.3	0.3	0	0	1	1.01929338	-7.19994629	63	1	1.04762	0.952381;
	134	1	71.7	15.7	0	0	1	1.06157111	-5.06341613	225	1	1.08889	1.00444;
	135	1	0	0	0	0	1	1.06882348	-6.07404253	225	1	1.08889	1.00444;
	136	1	18.8	2.3	0	0	1	1.02593326	-14.4616126	90	1	1.07778	0.977778;
	137	2	13.4	-9.1	0	0	1	1.01392935	-23.705382	63	1	1.06349	0.968254;
	138	1	0	0	0	0	1	1.00852224	-20.1381423	150	1	1.08	0.966667;
	139	1	8.6	-1	0	0	1	1.03758816	-16.3866761	63	1	1.07937	0.920635;
	140	1	0	0	0	0	1	1.06041212	-13.6876805	225	1	1.08889	1;
	141	1	0	0	0	0	1	1.06920268	-10.9773716	380	1	1.10526	1.05263;
	142	1	15.8	1.3	0	0	1	0.993218311	-7.19046283	63	1	1.07937	0.952381;
	143	1	0	0	0	0	1	1.03344899	-3.6229034	225	1	1.08889	0.986667;
	144	1	0	0	0	-64	1	1.0659952	1.34450935	20	1	1.15	0.8;
	145	1	21.2	10	0	0	1	1.06703974	-1.71860329	90	1	1.11111	0.955556;
	146	1	25.6	6.2	0	0	1	1.07075012	1.952524	225	1	1.08889	0.968889;
	147	1	0	0	0	0	1	1.07758521	4.64487201	380	1	1.10526	1;
	148	1	25	3.6	0	0	1	1.03532329	-16.8093848	63	1	1.06349	0.936508;
	149	1	6.3	2.2	0	0	1	1.02381475	-13.1877557	63	1	1.06349	0.936508;
	150	1	17.9	5.1	0	0	1	1.01331738	-14.2980128	90	1	1.06667	0.977778;
	151	1	41.9	5.6	0	0	1	1.02634692	-15.2130644	63	1	1.06349	0.936508;
	152	1	0	0	0	0	1	1.01187765	-23.3873021	63	1	1.06349	0.968254;
	153	1	34.2	5.9	0	7.7	1	1.01182713	-22.1035242	63	1	1.06349	0.968254;
	154	1	20.4	0.6	0	0	1	1.0281624	-12.3130526	63	1	1.06349	0.936508;
	155	1	0	0	0	0	1	1.05261113	-8.77049232	225	1	1.08889	0.933333;
	156	2	0	0	0	0	1	1.03932857	-22.8468447	63	1	1.07937	0.920635;
	157	1	0	0	0	0	1	1.01185953	-23.3890777	63	1	1.06349	0.968254;
	158	1	-0.1	-2.1	0	0	1	0.893491038	-15.6780436	45	1	1	0.888889;
	159	2	0	0	0	0	1	0.942183558	-13.0982007	45	1	1	0.888889;
	160	1	0	0	0	0	1	1.01193391	-17.4894114	63	1	1.06349	0.936508;
	161	1	29.5	2.3	0	0	1	1.07500358	2.21823483	225	1	1.08889	0.888889;
	162	1	31.5	7.4	0	0	1	1.07478904	2.21508383	225	1	1.08889	0.888889;
	163	1	0.4	-1.6	0	0	1	1.03081955	-5.92763746	90	1	1.06667	0.977778;
	164	1	0	0	0	0	1	0.999091093	-2.50402068	63	1	1.07937	0.952381;
	165	1	0	0	0	0	1	0.999091093	-2.50402068	63	1	1.07937	0.952381;
	166	1	11.3	-3.9	0	0	1	1.06522258	-9.79631289	20	1	1.15	0.8;
	167	1	5.8	1.4	0	0	1	1.02592697	-13.4986431	90	1	1.06667	0.977778;
	168	1	7.8	-0.9	0	0	1	1.02693912	-13.565118	90	1	1.06667	0.977778;
	169	1	0	0	0	0	1	1.06520036	-9.79138712	225	1	1.08642	1.00444;
	170	1	9.1	-1.1	0	0	1	1.03823037	-13.7614681	90	1	1.06667	0.977778;
	171	1	60	6.1	0	0	1	1.05236218	-8.60285854	90	1	1.07778	0.977778;
	172	1	21.4	-1.8	0	0	1	1.04408104	-10.2437651	90	1	1.07778	0.977778;
	173	1	0	0	0	0	1	1.07038066	-6.87883833	225	1	1.08889	1.00444;
	174	1	26.6	6.6	0	0	1	1.08555024	-0.155322588	90	1	1.08889	0.933333;
	175	1	35.7	-1.5	0	0	1	1.08775688	-2.42235932	90	1	1.11111	0.955556;
	176	1	0	0	0	0	1	1.0331185	-20.4221494	63	1	1.07937	0.920635;
	177	1	0	0	0	0	1	1.03451591	-17.970476	63	1	1.07937	0.920635;
	178	2	0	0	0	0	1	1.09880739	-18.9820262	150	1	1.1	0.9;
	179	1	0	0	0	0	1	1.06825259	-6.11639028	225	1	1.08889	1.00444;
	180	1	0	0	0	0	1	1.06825281	-6.11639148	225	1	1.08889	1.00444;
	181	1	0	0	0	-32	1	0.987946436	-8.7433999	20	1	1.15	0.8;
	182	1	0	0	0	-32	1	1.02097782	-8.69464344	20	1	1.15	0.8;
	183	1	0	0	0	0	1	1.0283818	-8.61223382	63	1	1.04762	0.952381;
	184	1	0	0	0	-80	1	1.06825131	-6.11638335	225	1	1.08889	1.00444;
	185	1	12.1	-5.9	0	0	1	1.0499366	-20.2715743	63	1	1.07937	0.920635;
	186	1	16	3.1	0	0	1	1.0344436	-8.31367592	63	1	1.06349	0.936508;
	187	1	5.4	0.3	0	0	1	1.01222621	-10.4506069	63	1	1.07937	0.952381;
	188	1	3	0.4	0	0	1	1.04326306	-3.89415499	90	1	1.07778	0.977778;
	189	1	21.9	2.4	0	0	1	0.987348913	-7.87646482	63	1	1.07937	0.952381;
	190	1	1.4	-0.7	0	0	1	1.03239921	-4.9093586	90	1	1.06667	0.977778;
	191	2	0	0	0	0	1	1.06384611	-21.8666208	63	1	1.07937	0.920635;
	192	1	12.5	1.1	0	0	1	1.05728222	-18.2690416	63	1	1.07937	0.920635;
	193	2	0	0	0	0	1	0.931563205	-14.4272429	45	1	1	0.888889;
	194	1	12.7	-1.3	0	0	1	1.04019125	-14.0138906	90	1	1.06667	0.977778;
	195	1	7.3	-1.4	0	0	1	1.04438472	-19.1701949	63	1	1.07937	0.920635;
	196	1	7.7	5.3	0	0	1	1.06796024	-5.20256594	225	1	1.08889	1.00444;
	197	1	1.4	-3.2	0	0	1	1.06034118	-20.2466052	63	1	1.07937	0.920635;
	198	1	0	0	0	0	1	1.08912074	-5.12051408	63	1	1.09743	0.952381;
	199	1	0	0	0	0	1	1.08912222	-5.12055667	63	1	1.09743	0.952381;
	200	1	25	-4.9	0	0	1	1.0414184	-23.6733462	63	1	1.07937	0.920635;
...
];

%% generator data
%	bus	Pg	Qg	Qmax	Qmin	Vg	mBase	status	Pmax	Pmin	Pc1	Pc2	Qc1min	Qc1max	Qc2min	Qc2max	ramp_agc	ramp_10	ramp_30	ramp_q	apf
mpc.gen = [
	4	0	0	0	0	1.067	100	0	12	0	0	0	0	0	0	0	0	0	0	0	0;
	4	0	0	0	0	1.067	100	0	10	0	0	0	0	0	0	0	0	0	0	0	0;
	5	0	0	0	0	0.985	100	0	9.1	0	0	0	0	0	0	0	0	0	0	0	0;
	11	0	0	0	0	1.067	100	0	28	0	0	0	0	0	0	0	0	0	0	0	0;
	11	0	0	0	0	1.067	100	0	18	0	0	0	0	0	0	0	0	0	0	0	0;
	17	0	0	0	0	1.055	100	0	8.2	0	0	0	0	0	0	0	0	0	0	0	0;
	19	0	0	0	0	1.03	100	0	1.2	0	0	0	0	0	0	0	0	0	0	0	0;
	22	0	0	0	0	1.004	100	0	10	0	0	0	0	0	0	0	0	0	0	0	0;
	24	0	0	0	0	1.064	100	0	16.1	0	0	0	0	0	0	0	0	0	0	0	0;
	24	0	0	0	0	1.064	100	0	35.5	0	0	0	0	0	0	0	0	0	0	0	0;
	25	0	0	0	0	1.093	100	0	36	0	0	0	0	0	0	0	0	0	0	0	0;
	25	0	0	0	0	1.093	100	0	27.2	0	0	0	0	0	0	0	0	0	0	0	0;
	40	0	0	0	0	1.044	100	0	8	0	0	0	0	0	0	0	0	0	0	0	0;
	47	0	0	9.5	-9.5	0.994	100	0	16	0	0	0	0	0	0	0	0	0	0	0	0;
	47	0	0	9.5	-9.5	0.994	100	0	16	0	0	0	0	0	0	0	0	0	0	0	0;
	48	0	0	0	0	1.052	100	0	23	0	0	0	0	0	0	0	0	0	0	0	0;
	48	0	0	0	0	1.052	100	0	24	0	0	0	0	0	0	0	0	0	0	0	0;
	57	-11.8883921	1	1	0.9	1.059	100	1	13	0	0	0	0	0	0	0	0	0	0	0	0;
	64	0	0	0	0	1.073	100	0	24	0	0	0	0	0	0	0	0	0	0	0	0;
	64	0	0	0	0	1.073	100	0	27.6	0	0	0	0	0	0	0	0	0	0	0	0;
	69	0.47	0	0	0	1.013	100	1	30.04	0	0	0	0	0	0	0	0	0	0	0	0;
	70	0	0	0	0	1.007	100	0	23	0	0	0	0	0	0	0	0	0	0	0	0;
	85	0	0	0	0	1.044	100	0	6.68	0	0	0	0	0	0	0	0	0	0	0	0;
	86	0	0	0	0	1.018	100	0	9.2	0	0	0	0	0	0	0	0	0	0	0	0;
	102	9.50047258	-3.36888464	21	-9	1.02	100	1	46	0	0	0	0	0	0	0	0	0	0	0	0;
	122	0	0	5	-2	1.01	100	0	12	0	0	0	0	0	0	0	0	0	0	0	0;
	124	0	0	0	0	1.05	100	0	9	0	0	0	0	0	0	0	0	0	0	0	0;
	125	5.03	0	0	0	1.027	100	1	26	0	0	0	0	0	0	0	0	0	0	0	0;
	125	0	0	0	0	1.027	100	0	12	0	0	0	0	0	0	0	0	0	0	0	0;
	132	0	0	3	-3	1.047	100	0	17	0	0	0	0	0	0	0	0	0	0	0	0;
	132	0	0	1	-1	1.047	100	0	4	0	0	0	0	0	0	0	0	0	0	0	0;
	132	0	0	3	-3	1.047	100	0	14	0	0	0	0	0	0	0	0	0	0	0	0;
	132	0	0	3	-3	1.047	100	0	14	0	0	0	0	0	0	0	0	0	0	0	0;
	137	0	0	0.8	-0.8	1.007	100	0	18	0	0	0	0	0	0	0	0	0	0	0	0;
	137	0	0	0.8	-0.8	1.007	100	0	18	0	0	0	0	0	0	0	0	0	0	0	0;
	156	0	0	1.76	-1.76	1.063	100	0	5.3	0	0	0	0	0	0	0	0	0	0	0	0;
	159	0	0	10	-13	0.942	100	0	17.9	0	0	0	0	0	0	0	0	0	0	0	0;
	159	0	0	10	-13	0.942	100	0	17.9	0	0	0	0	0	0	0	0	0	0	0	0;
	178	0	0	10	-4	1.1	100	0	30	0	0	0	0	0	0	0	0	0	0	0	0;
	191	0	0	8	-8	1.075	100	0	11	0	0	0	0	0	0	0	0	0	0	0	0;
	191	0	0	2	-2	1.075	100	0	11	0	0	0	0	0	0	0	0	0	0	0	0;
	193	0	0	14	-14	0.922	100	0	30	0	0	0	0	0	0	0	0	0	0	0	0;
	195	0	0	0	0	1.058	100	0	23.5	0	0	0	0	0	0	0	0	0	0	0	0;
	197	0	1	1	0.9	1.071	100	1	15	0	0	0	0	0	0	0	0	0	0	0	0;
	197	0	1	1	0.9	1.071	100	1	15	0	0	0	0	0	0	0	0	0	0	0	0;
	220	0	0	0	0	1.02	100	0	11.94	0	0	0	0	0	0	0	0	0	0	0	0;
	227	0	0	2	0	1.1	100	0	6	0	0	0	0	0	0	0	0	0	0	0	0;
	230	0	0	0	0	0.991	100	0	7.5	0	0	0	0	0	0	0	0	0	0	0	0;
	239	0	0	0	0	1.062	100	0	33.5	0	0	0	0	0	0	0	0	0	0	0	0;
	239	0	0	0	0	1.062	100	0	24.3	0	0	0	0	0	0	0	0	0	0	0	0;
	241	0	0	0	0	1.029	100	0	8	0	0	0	0	0	0	0	0	0	0	0	0;
	241	0	0	0	0	1.029	100	0	36	0	0	0	0	0	0	0	0	0	0	0	0;
	249	0	0	2	0	0.968	100	0	1	0	0	0	0	0	0	0	0	0	0	0	0;
	249	0	0	10	-10	0.968	100	0	31	0	0	0	0	0	0	0	0	0	0	0	0;
	249	0	0	10	-10	0.968	100	0	31	0	0	0	0	0	0	0	0	0	0	0	0;
	249	0	0	10	-10	0.968	100	0	31	0	0	0	0	0	0	0	0	0	0	0	0;
	259	0	0	10	-10	1.059	100	0	26	0	0	0	0	0	0	0	0	0	0	0	0;
	259	0	0	10	-10	1.059	100	0	26	0	0	0	0	0	0	0	0	0	0	0	0;
	261	0	0	1	0.9	1.057	100	0	30	0	0	0	0	0	0	0	0	0	0	0	0;
	264	0	0	4	-4	1.078	100	0	8	0	0	0	0	0	0	0	0	0	0	0	0;
	272	0	0	0	0	1.03	100	0	12.6	0	0	0	0	0	0	0	0	0	0	0	0;
	285	0	0	6.1	-6.2	0.968	100	0	11.6	0	0	0	0	0	0	0	0	0	0	0	0;
	298	0	0	0	0	1.071	100	0	25.3	0	0	0	0	0	0	0	0	0	0	0	0;
	299	0	0	0	0	1.028	100	0	12	0	0	0	0	0	0	0	0	0	0	0	0;
	308	0	0	9	-9	1.046	100	0	15	0	0	0	0	0	0	0	0	0	0	0	0;
	315	10.1	0	0	0	1.02	100	1	25.8	0	0	0	0	0	0	0	0	0	0	0	0;
	315	26.1	0	0	0	1.02	100	1	49.6	0	0	0	0	0	0	0	0	0	0	0	0;
	320	0	0	0	0	1.059	100	0	0	-7	0	0	0	0	0	0	0	0	0	0	0;
	320	0	0	0	0	1.059	100	0	0	-7	0	0	0	0	0	0	0	0	0	0	0;
	322	0	0	0.1	-0.1	1.056	100	0	10.8	0	0	0	0	0	0	0	0	0	0	0	0;
	328	0	0	4	-4	1.036	100	0	11	0	0	0	0	0	0	0	0	0	0	0	0;
	335	0	0	13	-9	1.036	100	0	25	0	0	0	0	0	0	0	0	0	0	0	0;
	336	0	0	13	-9	1.04	100	0	25	0	0	0	0	0	0	0	0	0	0	0	0;
	339	0	0	5	-6	1.022	100	0	13	0	0	0	0	0	0	0	0	0	0	0	0;
	341	0	0	10	-10	1.079	100	0	21	0	0	0	0	0	0	0	0	0	0	0	0;
	341	0	0	0.1	-0.1	1.079	100	0	2	0	0	0	0	0	0	0	0	0	0	0	0;
	348	0	0	0	0	1.056	100	0	2.3	0	0	0	0	0	0	0	0	0	0	0	0;
	348	2.13	0	0	0	1.056	100	1	19.5	0	0	0	0	0	0	0	0	0	0	0	0;
	351	0	0	0	0	1.081	100	0	22	0	0	0	0	0	0	0	0	0	0	0	0;
	359	0	0	30	-30	1.035	100	0	30	0	0	0	0	0	0	0	0	0	0	0	0;
	360	0	0	0	0	0.988	100	0	12	0	0	0	0	0	0	0	0	0	0	0	0;
	360	0	0	0	0	0.988	100	0	12	0	0	0	0	0	0	0	0	0	0	0	0;
	367	119.17	46.355508	59	-26	1.072	100	1	130	0	0	0	0	0	0	0	0	0	0	0	0;
	394	0	0	0	0	1.031	100	0	2.7	0	0	0	0	0	0	0	0	0	0	0	0;
	413	0	0	0	0	1.03	100	0	10	0	0	0	0	0	0	0	0	0	0	0	0;
	413	0	0	0	0	1.03	100	0	11.5	0	0	0	0	0	0	0	0	0	0	0	0;
	433	0	0	0	0	1.058	100	0	12	0	0	0	0	0	0	0	0	0	0	0	0;
	442	0	0	10.96	-11.99	1.065	100	0	34.25	0	0	0	0	0	0	0	0	0	0	0	0;
	449	0	0	8	-9	0.994	100	0	25	0	0	0	0	0	0	0	0	0	0	0	0;
	465	0	0	0	0	0.992	100	0	2.4	0	0	0	0	0	0	0	0	0	0	0	0;
	465	0	0	0	0	0.992	100	0	16	0	0	0	0	0	0	0	0	0	0	0	0;
	467	1	-2.08081932	6	-3	1.17	100	1	27	1	0	0	0	0	0	0	0	0	0	0	0;
	467	1	-2.08081932	6	-3	1.17	100	1	27	1	0	0	0	0	0	0	0	0	0	0	0;
	469	28.37	19	19	-10	1.029	100	1	48	1	0	0	0	0	0	0	0	0	0	0	0;
	473	0	0	6	-6	1.02	100	0	10	0	0	0	0	0	0	0	0	0	0	0	0;
	473	0	0	5.4	-5.4	1.02	100	0	9	0	0	0	0	0	0	0	0	0	0	0	0;
	482	0	0	17	-16	0.975	100	0	27	0	0	0	0	0	0	0	0	0	0	0	0;
	482	0	0	17	-16	0.975	100	0	27	0	0	0	0	0	0	0	0	0	0	0	0;
	482	0	0	17	-16	0.975	100	0	27	0	0	0	0	0	0	0	0	0	0	0	0;
	494	0	0	8	-17	1.049	100	0	23.4	0	0	0	0	0	0	0	0	0	0	0	0;
	511	0	0	2	-2	1.008	100	0	4	0	0	0	0	0	0	0	0	0	0	0	0;
	520	0	0	0	0	1.03	100	0	10	0	0	0	0	0	0	0	0	0	0	0	0;
	521	0	0	0	0	1.04	100	0	12	0	0	0	0	0	0	0	0	0	0	0	0;
	531	0	0	4.8	-4.8	1.001	100	0	8	0	0	0	0	0	0	0	0	0	0	0	0;
	531	0	0	4.8	-4.8	1.001	100	0	8	0	0	0	0	0	0	0	0	0	0	0	0;
	531	0	0	4.8	-4.8	1.001	100	0	8	0	0	0	0	0	0	0	0	0	0	0	0;
	537	0	0	0	0	1.026	100	0	12	0	0	0	0	0	0	0	0	0	0	0	0;
	537	0.02	0	0	0	1.026	100	1	24	0	0	0	0	0	0	0	0	0	0	0	0;
	546	0	2	2	1.9	1.066	100	1	9	0	0	0	0	0	0	0	0	0	0	0	0;
	549	0	0	2	0	1.057	100	0	12	0	0	0	0	0	0	0	0	0	0	0	0;
	571	0	0	0	0	0.985	100	0	12	0	0	0	0	0	0	0	0	0	0	0	0;
	571	3.94	0	0	0	0.985	100	1	30	0	0	0	0	0	0	0	0	0	0	0	0;
	571	0	0	0	0	0.985	100	0	11.5	0	0	0	0	0	0	0	0	0	0	0	0;
	584	0.27	7	7	-4	1.035	100	1	16	0	0	0	0	0	0	0	0	0	0	0	0;
	586	0	0	0	0	0.981	100	0	9	0	0	0	0	0	0	0	0	0	0	0	0;
	587	0	0	5.7	-5.7	0.997	100	0	9.5	0	0	0	0	0	0	0	0	0	0	0	0;
	590	0	0	0.1	-0.1	1.037	100	0	1	0	0	0	0	0	0	0	0	0	0	0	0;
	594	0	0	10	-10	1.045	100	0	21	0	0	0	0	0	0	0	0	0	0	0	0;
	601	0	0	1	-1	1.034	100	0	6.1	0	0	0	0	0	0	0	0	0	0	0	0;
	611	32.39	-3.20616881	45	-45	1.022	100	1	45	0	0	0	0	0	0	0	0	0	0	0	0;
	611	0	0	45	-45	1.022	100	0	45	0	0	0	0	0	0	0	0	0	0	0	0;
	613	0	0	0	0	1.017	100	0	12	0	0	0	0	0	0	0	0	0	0	0	0;
	613	0	0	0	0	1.017	100	0	12	0	0	0	0	0	0	0	0	0	0	0	0;
	613	0	0	0	0	1.017	100	0	12	0	0	0	0	0	0	0	0	0	0	0	0;
	614	0	0	0	0	1.03	100	0	35	0	0	0	0	0	0	0	0	0	0	0	0;
	614	0	0	0	0	1.03	100	0	11.5	0	0	0	0	0	0	0	0	0	0	0	0;
	626	0	0	8.3	-8.3	1.03	100	0	8.3	-8.3	0	0	0	0	0	0	0	0	0	0	0;
	635	0	0	4	-6	1.031	100	0	7.3	0	0	0	0	0	0	0	0	0	0	0	0;
	638	0	0	7	0	1.013	100	0	15	0	0	0	0	0	0	0	0	0	0	0	0;
	638	0	0	7	0	1.013	100	0	15	0	0	0	0	0	0	0	0	0	0	0	0;
	653	0	0	7	0	1.058	100	0	7	0	0	0	0	0	0	0	0	0	0	0	0;
	671	0	0	0	0	1.048	100	0	12	0	0	0	0	0	0	0	0	0	0	0	0;
	671	0	0	0	0	1.048	100	0	12	0	0	0	0	0	0	0	0	0	0	0	0;
	672	0	0	0	0	1.049	100	0	7.5	0	0	0	0	0	0	0	0	0	0	0	0;
	672	0.19	0	0	0	1.049	100	1	24	0	0	0	0	0	0	0	0	0	0	0	0;
	680	0	0	0	0	1.002	100	0	6.6	0	0	0	0	0	0	0	0	0	0	0	0;
	681	0	0	0	0	1.071	100	0	12	0	0	0	0	0	0	0	0	0	0	0	0;
	685	0	0	6	-5	0.89	100	0	9	0	0	0	0	0	0	0	0	0	0	0	0;
	685	0	0	6	-5	0.89	100	0	9	0	0	0	0	0	0	0	0	0	0	0	0;
	685	0	0	8	-5	0.89	100	0	11	0	0	0	0	0	0	0	0	0	0	0	0;
	685	0	0	8	-5	0.89	100	0	11	0	0	0	0	0	0	0	0	0	0	0	0;
	696	3.2	0	0	0	1.067	100	1	32.35	0	0	0	0	0	0	0	0	0	0	0	0;
	696	0	0	0	0	1.067	100	0	12	0	0	0	0	0	0	0	0	0	0	0	0;
	696	0	0	0	0	1.067	100	0	21	0	0	0	0	0	0	0	0	0	0	0	0;
	700	23.44	-9.433325	15	-17	1	100	1	37	0	0	0	0	0	0	0	0	0	0	0	0;
	700	22.45	-9.433325	15	-17	1	100	1	37	0	0	0	0	0	0	0	0	0	0	0	0;
	699	24.59	-9.53037634	15	-15	1	100	1	37	0	0	0	0	0	0	0	0	0	0	0	0;
	699	24.59	-9.53037634	15	-15	1	100	1	37	0	0	0	0	0	0	0	0	0	0	0	0;
	698	23.58	-7.04366401	15	-17	1.004	100	1	37	0	0	0	0	0	0	0	0	0	0	0	0;
	698	23.58	-7.04366401	15	-17	1.004	100	1	37	0	0	0	0	0	0	0	0	0	0	0	0;
	706	0	0	2	-2	0.891	100	0	4	0	0	0	0	0	0	0	0	0	0	0	0;
	706	0	0	2.5	-2.5	0.891	100	0	4	0	0	0	0	0	0	0	0	0	0	0	0;
	706	0	0	3	-3	0.891	100	0	5.7	0	0	0	0	0	0	0	0	0	0	0	0;
	706	0	0	6	-5	0.891	100	0	8.5	0	0	0	0	0	0	0	0	0	0	0	0;
	733	8.96	0	0	0	1.023	100	1	19.5	0	0	0	0	0	0	0	0	0	0	0	0;
	734	20.39	-15.4636199	18	-18	0.939	100	1	39	0	0	0	0	0	0	0	0	0	0	0	0;
	735	0	0	0	0	1.002	100	0	11.5	0	0	0	0	0	0	0	0	0	0	0	0;
	735	3	0	0	0	1.002	100	1	32	0	0	0	0	0	0	0	0	0	0	0	0;
	737	0	0	0	0	1.064	100	0	12	0	0	0	0	0	0	0	0	0	0	0	0;
	737	0	0	0	0	1.064	100	0	32	0	0	0	0	0	0	0	0	0	0	0	0;
	738	0	0	0.1	-0.1	1.049	100	0	5	0	0	0	0	0	0	0	0	0	0	0	0;
	745	0	0	4.4	-3.7	0.946	100	0	6.7	0	0	0	0	0	0	0	0	0	0	0	0;
	745	0	0	5	-3	0.946	100	0	5.6	0	0	0	0	0	0	0	0	0	0	0	0;
	746	8.27	-16.55	15	-16.55	0.938	100	1	26.6	0	0	0	0	0	0	0	0	0	0	0	0;
	747	1	2	2	-2	1.009	100	1	7	1	0	0	0	0	0	0	0	0	0	0	0;
	752	0	0	3	-3	0.967	100	0	5	-5	0	0	0	0	0	0	0	0	0	0	0;
	759	0	0	8	-8	1.072	100	0	23.5	0	0	0	0	0	0	0	0	0	0	0	0;
	761	0	0	0	0	1.036	100	0	6	0	0	0	0	0	0	0	0	0	0	0	0;
	762	0	0	0	0	1.034	100	0	6	0	0	0	0	0	0	0	0	0	0	0	0;
	761	7.58	-2.68276157	10	-6	1.036	100	1	37.5	0	0	0	0	0	0	0	0	0	0	0	0;
	762	6.25	1.06592124	10	-6	1.034	100	1	37.5	0	0	0	0	0	0	0	0	0	0	0	0;
	763	0	0	0.06	-0.06	0.601	100	0	0.6	0	0	0	0	0	0	0	0	0	0	0	0;
	763	0	0	2.61	-2.61	0.601	100	0	26.1	0	0	0	0	0	0	0	0	0	0	0	0;
	763	0	0	0.16	-0.16	0.601	100	0	1.6	0	0	0	0	0	0	0	0	0	0	0	0;
	763	0	0	0.11	-0.11	0.601	100	0	1.1	0	0	0	0	0	0	0	0	0	0	0	0;
	767	0	0	0	0	1.018	100	0	37.5	0	0	0	0	0	0	0	0	0	0	0	0;
	767	0	0	0	0	1.018	100	0	34	0	0	0	0	0	0	0	0	0	0	0	0;
	787	0	0	26	-26	0.943	100	0	8	0	0	0	0	0	0	0	0	0	0	0	0;
	787	0	0	26	-26	0.943	100	0	15	0	0	0	0	0	0	0	0	0	0	0	0;
	788	0	0	26	-26	0.97	100	0	19	0	0	0	0	0	0	0	0	0	0	0	0;
	802	17.39	-9.40841524	15	-17	1.001	100	1	31	0	0	0	0	0	0	0	0	0	0	0	0;
	802	19.35	-9.40841524	15	-17	1.001	100	1	31	0	0	0	0	0	0	0	0	0	0	0	0;
	803	19.95	-8.70355711	15	-17	1.003	100	1	31	0	0	0	0	0	0	0	0	0	0	0	0;
	803	19.28	-8.70355711	15	-17	1.003	100	1	31	0	0	0	0	0	0	0	0	0	0	0	0;
	804	19.11	-8.70626595	15	-17	1.003	100	1	31	0	0	0	0	0	0	0	0	0	0	0	0;
	804	19.11	-8.70626595	15	-17	1.003	100	1	31	0	0	0	0	0	0	0	0	0	0	0	0;
	808	0	0	0	0	1.042	100	0	40.8	0	0	0	0	0	0	0	0	0	0	0	0;
	816	14.78	-2.34034643	6	-9	1.021	100	1	32	1	0	0	0	0	0	0	0	0	0	0	0;
	816	0	0	6	-9	1.021	100	0	32	1	0	0	0	0	0	0	0	0	0	0	0;
	817	15.98	-0.603590566	6	-9	1.02	100	1	32	1	0	0	0	0	0	0	0	0	0	0	0;
	817	15.98	-0.603590566	6	-9	1.02	100	1	32	1	0	0	0	0	0	0	0	0	0	0	0;
	817	12.97	-0.603590566	6	-9	1.02	100	1	32	1	0	0	0	0	0	0	0	0	0	0	0;
	817	14.98	-0.603590566	6	-9	1.02	100	1	32	1	0	0	0	0	0	0	0	0	0	0	0;
	827	0	0	3	-3	1.058	100	0	13	0	0	0	0	0	0	0	0	0	0	0	0;
	827	0	0	3	-3	1.058	100	0	7	0	0	0	0	0	0	0	0	0	0	0	0;
	830	0	0	0	0	1.079	100	0	2.4	0	0	0	0	0	0	0	0	0	0	0	0;
	831	0	0	10	-10	1.068	100	0	27	0	0	0	0	0	0	0	0	0	0	0	0;
	832	0	0	10	-10	0.937	100	0	20	0	0	0	0	0	0	0	0	0	0	0	0;
	834	0	0	3.14	-3.43	1.063	100	0	9.8	0	0	0	0	0	0	0	0	0	0	0	0;
	834	0	0	1	0	1.063	100	0	5	0	0	0	0	0	0	0	0	0	0	0	0;
...
];

%% branch data
%	fbus	tbus	r	x	b	rateA	rateB	rateC	ratio	angle	status	angmin	angmax	Pf	Qf	Pt	Qt
mpc.branch = [
	4667	1	0.005726	0.010482	0	0	0	0	1	0	1	0	0	-0.0000	1.0000	0.0001	-0.9999;
	5273	1	0.01284	0.025679	0	0	0	0	1	0	1	0	0	0.0002	-0.9996	-0.0001	0.9999;
	1689	2	0.005799	0.010615	0.0075	0	0	0	1	0	1	0	0	0.0000	-0.8006	0.0000	0.0000;
	1680	3	0.134039	0.309398	0.0035	0	0	0	1	0	1	0	0	12.5769	-1.2245	-12.3615	1.3791;
	2311	3	0.049131	0.133283	0.0015	0	0	0	1	0	1	0	0	-0.6613	0.0349	0.6615	-0.1791;
	696	4	0.025926	0.109136	0.0002	0	0	0	1	0	1	0	0	8.8794	-3.4234	-8.8587	3.4878;
	3961	4	0.05	0.126914	0.0006	0	0	0	1	0	1	0	0	-4.3601	1.9539	4.3702	-1.9965;
	5073	4	0.02321	0.097407	0.0016	0	0	0	1	0	1	0	0	29.4965	-6.1145	-29.3115	6.7087;
	4437	5	0.040564	0.113631	0.0013	0	0	0	1	0	1	0	0	11.0514	-0.8816	-11.0000	0.9000;
	2789	6	0.006047	0.020912	0.0222	0	0	0	1	0	1	0	0	13.0102	1.9751	-13.0000	-4.3000;
	2790	7	0.012472	0.032099	0.0061	0	0	0	1	0	1	0	0	1.0001	-0.8806	-1.0000	0.2000;
	2477	8	0.002607	0.017462	0.0324	540	540	540	1	0	1	0	0	0.4009	-8.0962	-0.4000	4.4000;
	473	9	0.053893	0.14258	0.0017	0	0	0	1	0	1	0	0	17.0455	0.2035	-16.9000	-0.0000;
	11	10	0.000247	0.001235	0.0005	0	0	0	1	0	1	0	0	0.0000	-0.0483	0.0000	-0.0085;
	11	10	0.000247	0.001235	0.0002	0	0	0	1	0	1	0	0	0.0000	-0.0312	0.0000	0.0085;
	30	11	0.039753	0.100988	0.0047	0	0	0	1	0	1	0	0	-1.6176	-1.8141	1.6193	1.2859;
	2945	11	0.037654	0.096173	0.001	0	0	0	1	0	1	0	0	21.7756	-1.6087	-21.6193	1.8936;
	2189	12	0.014613	0.060721	0.0008	0	0	0	1	0	1	0	0	8.3885	3.9071	-8.3758	-3.9333;
	4039	12	0.034064	0.121139	0.0015	0	0	0	1	0	1	0	0	7.3472	3.2596	-7.3250	-3.3288;
	4041	12	0.000242	0.000442	0.0004	0	0	0	1	0	1	0	0	-15.7000	-7.3000	15.7007	7.2620;
	115	13	2.1e-05	0.000125	0.1386	737	737	737	1	0	1	0	0	0.0000	0.0000	0.0000	-15.3980;
	2345	13	0.000145	0.001877	0.0635	2487	2487	2487	1	0	1	0	0	-275.7716	-32.7749	275.8722	27.0280;
	4597	13	0.000319	0.003234	0.0838	1841	1841	1841	1	0	1	0	0	276.0909	-10.8658	-275.8722	3.7680;
	116	13	2.1e-05	0.000125	0.1386	737	737	737	1	0	1	0	0	0.0000	0.0000	0.0000	-15.3980;
	1229	14	0.04	0.134198	0.0274	0	0	0	1	0	1	0	0	-44.1662	1.1146	44.9022	-1.6034;
	2887	14	0.012222	0.052346	0.0026	0	0	0	1	0	1	0	0	-32.1252	2.2514	32.2416	-2.0372;
	4615	14	0.007284	0.045432	0.0024	0	0	0	1	0	1	0	0	94.6293	1.0605	-94.0409	2.3445;
	4976	14	0.059963	0.154222	0.0236	0	0	0	1	0	1	0	0	-33.0107	1.7580	33.6307	-2.7100;
	5259	14	0.018025	0.110988	0.0073	0	0	0	1	0	1	0	0	-9.1965	-0.6126	9.2105	-0.0998;
	2887	14	0.012222	0.052593	0.0032	0	0	0	1	0	1	0	0	-31.9846	2.1748	32.0999	-2.0283;
	4615	14	0.007284	0.044938	0.0024	0	0	0	1	0	1	0	0	95.6450	0.9090	-95.0440	2.5343;
	2921	15	0.037541	0.100529	0.0011	0	0	0	1	0	1	0	0	-28.1264	1.9810	28.4178	-1.3146;
	4150	15	0.090199	0.211388	0.0023	0	0	0	1	0	1	0	0	2.8207	-1.7821	-2.8115	1.5643;
	4477	15	0.09801	0.267574	0	0	0	0	1	0	1	0	0	26.2227	1.9326	-25.6063	-0.2498;
	252	16	0.071806	0.191484	0.0019	0	0	0	1	0	1	0	0	4.2057	-1.8994	-4.1919	1.7287;
	340	16	0.119174	0.284958	0.0044	0	0	0	1	0	1	0	0	6.1586	2.8620	-6.1081	-3.2287;
	5865	17	0.022346	0.061111	0.0029	0	0	0	1	0	1	0	0	11.2256	-0.8493	-11.2000	0.6000;
	3747	18	0.009383	0.019753	0	0	0	0	1	0	1	0	0	0.0000	0.0000	0.0000	0.0000;
	5121	19	0.000252	0.000504	0	0	0	0	1	0	1	0	0	1.0000	0.0000	-1.0000	-0.0000;
	3747	20	0.001975	0.004444	0	0	0	0	1	0	1	0	0	2.3079	-18.2822	-2.3000	18.3000;
	1359	21	0.036296	0.099012	0.0045	0	0	0	1	0	1	0	0	-9.4983	0.5274	9.5291	-0.9268;
	1605	21	0.032716	0.089136	0.0057	0	0	0	1	0	1	0	0	16.1101	-3.2212	-16.0291	2.8268;
	1849	22	0.138574	0.351474	0.0058	0	0	0	1	0	1	0	0	12.7006	0.6138	-12.4851	-0.6606;
	5050	22	0.094407	0.210456	0.0044	0	0	0	1	0	1	0	0	2.7221	0.3124	-2.7149	-0.7394;
	1161	23	0.047115	0.117158	0.001	0	0	0	1	0	1	0	0	24.0010	-0.1950	-23.7391	0.7438;
	2713	23	0.039557	0.120937	0.0132	0	0	0	1	0	1	0	0	21.5038	4.6399	-21.3178	-5.4299;
	3443	23	0.022676	0.062484	0.0007	0	0	0	1	0	1	0	0	-15.9000	-0.0000	15.9569	0.0860;
	145	24	0.064568	0.16716	0.0113	0	0	0	1	0	1	0	0	11.9351	-2.8010	-11.8516	1.7348;
	1287	24	0.048605	0.128481	0.0062	0	0	0	1	0	1	0	0	-2.1488	-1.7570	2.1516	1.0652;
	493	25	0.004815	0.02963	0.0016	0	0	0	1	0	1	0	0	28.4757	-14.7176	-28.4340	14.7846;
	2101	25	0.007309	0.04463	0.0073	0	0	0	1	0	1	0	0	18.0902	7.9612	-18.0660	-8.6846;
	613	26	0.034321	0.145802	0.0073	0	0	0	1	0	1	0	0	-38.0405	1.8930	38.5264	-0.5859;
	1872	26	0.004815	0.009753	0.0005	0	0	0	1	0	1	0	0	-15.0000	1.0000	15.0104	-1.0313;
	2613	26	0.049012	0.133704	0.0063	0	0	0	1	0	1	0	0	-22.1792	8.1571	22.4429	-8.0983;
	2938	26	0.04642	0.126543	0.0058	0	0	0	1	0	1	0	0	-8.9681	2.5176	9.0073	-3.0185;
	3357	26	0.046296	0.125926	0.006	0	0	0	1	0	1	0	0	-48.6051	8.7776	49.7126	-6.3863;
	4652	26	0.053704	0.136753	0.0065	0	0	0	1	0	1	0	0	-27.7055	2.2588	28.1115	-1.8985;
	2938	26	0.03358	0.120988	0.0062	0	0	0	1	0	1	0	0	-9.8403	1.9165	9.8729	-2.4484;
	536	27	0.006163	0.041067	0.0759	446	446	446	1	0	1	0	0	65.6875	-15.8648	-65.4458	8.8573;
	2358	27	0.000652	0.004369	0.0081	558	558	558	1	0	1	0	0	128.1777	2.5719	-128.0836	-2.8623;
	2694	28	0.050945	0.131922	0.0015	0	0	0	1	0	1	0	0	15.2900	-0.5938	-15.1783	0.7238;
	3913	28	0.058781	0.149005	0.0017	0	0	0	1	0	1	0	0	-14.6552	1.7577	14.7783	-1.6238;
	2900	29	0.067019	0.137566	0.0037	0	0	0	1	0	1	0	0	19.1710	-20.2484	-18.6506	20.9438;
	3339	29	0.032754	0.088939	0.0039	0	0	0	1	0	1	0	0	16.2354	10.7522	-16.1161	-10.8330;
	3339	29	0.030184	0.080096	0.0053	0	0	0	1	0	1	0	0	18.0682	11.7185	-17.9334	-11.9108;
	145	30	0.066049	0.187778	0.0099	0	0	0	1	0	1	0	0	20.0983	-5.2728	-19.8512	4.8521;
	1559	30	0.065062	0.133704	0.0062	0	0	0	1	0	1	0	0	-2.3238	5.4313	2.3459	-6.0911;
	4861	30	0.041728	0.106049	0.005	0	0	0	1	0	1	0	0	10.7293	-5.3856	-10.6772	4.9531;
	151	31	0.009574	0.03875	0.0114	0	0	0	1	0	1	0	0	-20.5843	-1.5883	20.6229	0.5410;
	3180	31	0.000171	0.000313	0.0002	0	0	0	1	0	1	0	0	-0.9000	-0.3000	0.9000	0.2788;
	3712	31	0.034266	0.09423	0.001	0	0	0	1	0	1	0	0	-33.0977	0.7565	33.4603	0.1359;
	4763	31	0.006803	0.028219	0	0	0	0	1	0	1	0	0	-23.8555	-7.2848	23.8958	7.4519;
	151	31	0.008566	0.037541	0.0121	0	0	0	1	0	1	0	0	-21.3159	-2.0427	21.3530	0.9279;
	3749	32	0.009733	0.034089	0.0185	0	0	0	1	0	1	0	0	25.4633	0.5717	-25.4034	-2.3108;
	369	34	0.000277	0.002015	0.003	0	0	0	1	0	1	0	0	-87.7873	-56.2044	87.8155	56.0893;
	1020	33	0.00881	0.033995	0.0607	0	0	0	1	0	1	0	0	-30.7076	6.9608	30.7929	-13.1921;
	1162	33	0.004642	0.019832	0.0354	0	0	0	1	0	1	0	0	-106.1420	-20.6896	106.6498	19.0666;
	2591	34	0.008861	0.03506	0.0623	0	0	0	1	0	1	0	0	-67.9201	-29.9174	68.3751	25.1584;
	2714	34	0.006993	0.032869	0.0557	0	0	0	1	0	1	0	0	-43.8437	14.5717	43.9890	-19.8551;
	4768	33	0.002173	0.008731	0.0152	0	0	0	1	0	1	0	0	-37.8345	-6.2990	37.8640	4.7776;
	4878	34	0.00077	0.003121	0.0051	0	0	0	1	0	1	0	0	-29.7729	0.7318	29.7793	-1.2508;
	5700	33	0.004109	0.016138	0.0284	0	0	0	1	0	1	0	0	-61.1176	-26.3969	61.2853	24.0067;
	371	35	8.3e-05	0.000907	0.0202	1034	1034	1034	1	0	1	0	0	51.1500	-43.9603	-51.1467	41.7549;
	1114	35	0.000552	0.006726	0.0939	1786	1786	1786	1	0	1	0	0	68.7814	-49.0858	-68.7481	39.0913;
	2158	35	0.000512	0.008012	0.2455	2462	2462	2462	1	0	1	0	0	672.5895	13.2182	-670.5158	-8.1267;
	3153	35	0.001107	0.00918	0.1906	1644	1644	1644	1	0	1	0	0	-82.5714	10.3775	82.6436	-30.9560;
	370	36	6.2e-05	0.000741	0.0173	1095	1095	1095	1	0	1	0	0	47.0400	54.8358	-47.0371	-56.7369;
	2158	35	0.000512	0.008019	0.2455	2462	2462	2462	1	0	1	0	0	672.0033	13.2321	-669.9331	-8.1687;
	2158	36	0.001153	0.013123	0.1841	1433	1433	1433	1	0	1	0	0	215.5512	-27.0939	-215.0694	11.9803;
	5258	37	0.055933	0.120685	0.0013	0	0	0	1	0	1	0	0	-15.8146	9.8572	15.9991	-9.5961;
	5544	37	0.039053	0.084404	0.001	0	0	0	1	0	1	0	0	18.4338	-5.0105	-18.2991	5.1961;
	726	38	0.00252	0.006551	0.0001	0	0	0	1	0	1	0	0	7.0011	-1.0083	-7.0000	1.0000;
	1233	39	0.009877	0.042222	0.0021	0	0	0	1	0	1	0	0	38.3738	-7.8933	-38.2269	8.3050;
	5839	39	0.024815	0.063086	0.0029	0	0	0	1	0	1	0	0	-41.0173	10.6222	41.4538	-9.8100;
	1233	39	0.009877	0.042222	0.0021	0	0	0	1	0	1	0	0	38.3738	-7.8933	-38.2269	8.3050;
	2259	40	0.056173	0.142593	0.0066	0	0	0	1	0	1	0	0	15.0465	-7.2051	-14.9042	6.8536;
	4615	40	0.034444	0.109012	0.0076	0	0	0	1	0	1	0	0	16.9010	6.8540	-16.7958	-7.3536;
	432	41	0.000158	0.000672	0.0719	0	0	0	1	0	1	0	0	7.7001	-8.3231	-7.7000	-0.0667;
	3975	41	4.5e-05	8.9e-05	0.002	0	0	0	1	0	1	0	0	-7.7000	-0.3000	7.7000	0.0667;
	1488	42	0.01096	0.020063	0.009	0	0	0	1	0	1	0	0	0.0198	-0.3115	-0.0198	-0.7684;
	2775	42	0.002268	0.008818	0.0099	0	0	0	1	0	1	0	0	-0.0198	-1.9560	0.0198	0.7684;
	2734	43	0.001481	0.006296	0.0039	0	0	0	1	0	1	0	0	3.4002	2.3697	-3.4000	-2.8000;
	3506	44	0.050617	0.137012	0.009	0	0	0	1	0	1	0	0	21.7045	-5.7774	-21.4556	5.5400;
	4347	44	0.074326	0.194507	0.0021	0	0	0	1	0	1	0	0	-8.9735	5.5422	9.0556	-5.5400;
	5124	45	0.000247	0.000741	0	0	0	0	1	0	1	0	0	3.0000	2.1001	-3.0000	-2.1000;
	1089	46	0.049131	0.134039	0.001	0	0	0	1	0	1	0	0	-0.3074	-1.1652	0.3081	1.0656;
	2202	46	0.033258	0.090955	0.001	0	0	0	1	0	1	0	0	2.4132	0.7737	-2.4110	-0.8696;
	3323	46	0.067437	0.123442	0.001	0	0	0	1	0	1	0	0	-2.1000	0.1000	2.1030	-0.1960;
	1089	47	0.037289	0.118166	0.001	0	0	0	1	0	1	0	0	0.0000	-0.1012	-0.0000	-0.0000;
	5392	48	0.021358	0.057037	0.0005	0	0	0	1	0	1	0	0	34.2245	1.8441	-34.0000	-1.3000;
	1227	49	0.071303	0.180902	0.0021	0	0	0	1	0	1	0	0	-0.8701	-1.9323	0.8728	1.7157;
	2353	49	0.071554	0.18191	0.0021	0	0	0	1	0	1	0	0	7.8138	-0.9053	-7.7728	0.7843;
	473	50	0.028193	0.104535	0.0013	0	0	0	1	0	1	0	0	-64.3325	0.3296	65.4163	3.5466;
	1683	50	0.055404	0.171429	0.01	0	0	0	1	0	1	0	0	-16.7000	-3.4000	16.8463	2.7506;
	3572	50	0.010834	0.071554	0.001	0	0	0	1	0	1	0	0	-24.2186	-3.4400	24.2772	3.7157;
	4649	50	0.013857	0.030234	0.0003	0	0	0	1	0	1	0	0	-31.7794	-3.1030	31.9072	3.3484;
	3572	50	0.011414	0.070648	0.0009	0	0	0	1	0	1	0	0	-24.5239	-3.2298	24.5870	3.5203;
	4649	50	0.013757	0.030108	0.0003	0	0	0	1	0	1	0	0	-31.9257	-3.1546	32.0538	3.4015;
	1200	51	0.00478	0.028622	0.0547	455	455	455	1	0	1	0	0	105.7732	13.5445	-105.2776	-16.5743;
	1201	51	0.00478	0.028583	0.0547	455	455	455	1	0	1	0	0	90.5937	15.0976	-90.2246	-18.8864;
	167	52	0.01284	0.032716	0.0015	0	0	0	1	0	1	0	0	58.0895	-5.7335	-57.6740	6.6353;
	5518	52	0.014198	0.036049	0.0016	0	0	0	1	0	1	0	0	-51.4961	9.9288	51.8740	-9.1353;
	3367	53	0.005291	0.021668	0.0003	0	0	0	1	0	1	0	0	0.2000	-0.3313	-0.2000	0.3000;
	2779	54	0.01358	0.047654	0.0023	0	0	0	1	0	1	0	0	0.9002	-1.0506	-0.9000	0.8000;
	376	55	0.000257	0.000514	0.0294	0	0	0	1	0	1	0	0	30.1021	2.0462	-30.1000	-5.4000;
	2703	56	0.000257	0.002153	0.2147	452	452	452	1	0	1	0	0	-120.4040	-25.4517	120.4383	2.0432;
	3445	56	0.000277	0.000869	0.0931	481	481	481	1	0	1	0	0	162.7046	-1.7335	-162.6383	-8.3432;
	5125	57	0.000756	0.00252	0	0	0	0	1	0	1	0	0	11.8894	-0.9967	-11.8884	1.0000;
	3408	58	0.000237	0.00083	0.1863	0	0	0	1	0	1	0	0	103.9357	11.3699	-103.9123	-32.5647;
	3584	58	0.000178	0.000612	0.1377	0	0	0	1	0	1	0	0	3.6879	-19.4835	-3.6877	3.7647;
	142	59	0.030486	0.076342	0.002	0	0	0	1	0	1	0	0	8.3141	1.0671	-8.2923	-1.2092;
	1659	59	0.011086	0.024691	0.0015	0	0	0	1	0	1	0	0	-3.0912	0.0463	3.0923	-0.1908;
	2487	60	0.044344	0.170572	0.0021	0	0	0	1	0	1	0	0	9.3566	2.4937	-9.3154	-2.5465;
	3544	60	0.036709	0.151776	0.0017	0	0	0	1	0	1	0	0	-9.2809	-2.5724	9.3154	2.5465;
	2236	61	0.017788	0.048551	0.0006	0	0	0	1	0	1	0	0	20.5814	5.6024	-20.5011	-5.4431;
	2645	61	0.057521	0.145251	0.0017	0	0	0	1	0	1	0	0	9.1469	-0.3919	-9.0989	0.3431;
	2054	62	0.014109	0.057949	0.0029	0	0	0	1	0	1	0	0	7.4503	-8.5854	-7.4323	8.3708;
	2966	62	0.007055	0.02973	0.0014	0	0	0	1	0	1	0	0	-7.4235	8.2676	7.4323	-8.3708;
	374	63	0.024263	0.065911	0.0007	0	0	0	1	0	1	0	0	-1.2762	0.3284	1.2766	-0.3964;
	3100	63	0.020912	0.059209	0.0016	0	0	0	1	0	1	0	0	14.1190	1.5652	-14.0766	-1.6036;
	146	64	0.002568	0.011753	0.0203	424	424	424	1	0	1	0	0	37.6716	-5.8881	-37.6393	3.7093;
	5135	64	0.002568	0.011615	0.0228	0	0	0	1	0	1	0	0	9.5628	0.4057	-9.5607	-3.0093;
	4627	65	0.006299	0.033585	0.0599	0	0	0	1	0	1	0	0	5.0068	-4.6191	-5.0051	-1.4447;
	4627	65	0.006299	0.033661	0.06	0	0	0	1	0	1	0	0	4.9966	-4.6187	-4.9949	-1.4553;
	1552	66	0.102293	0.226757	0.0025	0	0	0	1	0	1	0	0	-9.9000	5.0000	10.0157	-5.0181;
	2300	66	0.177551	0.405291	0.0046	0	0	0	1	0	1	0	0	21.1063	-9.4560	-20.2412	10.9281;
	3267	66	0.088264	0.161566	0.0017	0	0	0	1	0	1	0	0	0.8849	-3.5568	-0.8745	3.3901;
	3049	67	0.007307	0.014613	0.0002	0	0	0	1	0	1	0	0	0.0000	-0.0214	-0.0000	-0.0000;
	2202	68	0.043336	0.11867	0.001	0	0	0	1	0	1	0	0	-15.9132	-1.7737	16.0222	1.9695;
	2896	68	0.067775	0.139834	0.001	0	0	0	1	0	1	0	0	3.7007	-0.2129	-3.6918	0.1274;
	4557	68	0.047367	0.16125	0.0021	0	0	0	1	0	1	0	0	18.8018	-4.3952	-18.6324	4.7539;
	5178	68	0.004031	0.016629	0.001	0	0	0	1	0	1	0	0	34.8451	0.1411	-34.7980	-0.0507;
	4630	69	0.073066	0.205089	0.0022	0	0	0	1	0	1	0	0	14.0768	-3.0131	-13.9300	3.2000;
	5126	70	4.8e-05	8.8e-05	0.0001	0	0	0	1	0	1	0	0	8.7000	0.5900	-8.7000	-0.6000;
	2173	71	0.000252	0.00252	0.0008	0	0	0	1	0	1	0	0	34.0000	8.8664	-33.9970	-8.9212;
	3163	71	0.030738	0.088687	0.0169	0	0	0	1	0	1	0	0	7.7058	-1.4560	-7.6885	-0.2785;
	5127	71	0.006551	0.016377	0.0171	0	0	0	1	0	1	0	0	4.9701	-0.7273	-4.9686	-1.0720;
	3163	71	0.025195	0.07483	0.0204	0	0	0	1	0	1	0	0	9.1660	-1.6661	-9.1459	-0.4284;
	3766	72	9.9e-05	0.00077	0.078	0	0	0	1	0	1	0	0	-56.6971	-20.0565	56.7000	10.8851;
	3766	73	9.9e-05	0.00077	0.077	0	0	0	1	0	1	0	0	-57.6970	-19.8994	57.7000	10.8467;
	5135	74	0.000514	0.003437	0.0061	0	0	0	1	0	1	0	0	-9.5628	-0.4057	9.5632	-0.2910;
	5155	74	0.005476	0.036879	0.1255	522	522	522	1	0	1	0	0	-42.1449	-7.1237	42.2300	-6.6635;
	146	74	0.000514	0.003457	0.0061	418	418	418	1	0	1	0	0	88.9298	-16.1080	-88.8933	15.6545;
	4988	75	0.017531	0.046914	0.0023	0	0	0	1	0	1	0	0	10.1450	0.3192	-10.1289	-0.5344;
	2091	75	0.005309	0.014321	0.0006	0	0	0	1	0	1	0	0	9.1751	0.8091	-9.1711	-0.8656;
	3101	76	0.003477	0.01118	0.0187	0	0	0	1	0	1	0	0	-11.5673	-9.4378	11.5738	7.3873;
	3852	76	0.000612	0.003121	0.0152	0	0	0	1	0	1	0	0	17.8760	8.9128	-17.8738	-10.5873;
	2352	77	0.013857	0.035525	0.0004	0	0	0	1	0	1	0	0	29.0108	-4.9591	-28.9000	5.2000;
	243	78	0.002771	0.008314	0.0083	0	0	0	1	0	1	0	0	1.0000	-0.0192	-1.0000	-0.9000;
	4582	78	0.000151	0.000302	0	0	0	0	1	0	1	0	0	-1.0000	-0.9000	1.0000	0.9000;
	632	79	0.010758	0.02187	0.0071	0	0	0	1	0	1	0	0	-14.5000	0.3500	14.5215	-1.0563;
	1877	79	0.003779	0.014613	0.0198	0	0	0	1	0	1	0	0	31.4700	15.6497	-31.4250	-17.5771;
	2420	79	0.008314	0.017057	0.024	0	0	0	1	0	1	0	0	-4.8000	1.3000	4.8023	-3.8340;
	4102	79	0.000252	0.001764	0.0043	0	0	0	1	0	1	0	0	1.2208	-10.5050	-1.2206	10.0520;
	632	79	0.010758	0.02187	0.0071	0	0	0	1	0	1	0	0	-14.5000	0.3500	14.5215	-1.0563;
	4101	79	0.000302	0.001562	0.0037	0	0	0	1	0	1	0	0	1.2003	-13.8603	-1.1998	13.4717;
	4103	81	2.4e-05	0.000144	0.0213	701	701	701	1	0	1	0	0	26.1001	1.0551	-26.1000	-3.5000;
	4103	80	7.1e-05	0.000162	0.0162	0	0	0	1	0	1	0	0	26.1004	-2.8592	-26.1000	1.0000;
	676	82	0.068027	0.173091	0.002	0	0	0	1	0	1	0	0	-26.2001	-0.1834	26.6585	1.1423;
	799	82	0.027211	0.068783	0.001	0	0	0	1	0	1	0	0	1.7722	-2.0018	-1.7704	1.9007;
	2079	82	0.03099	0.202822	0.002	0	0	0	1	0	1	0	0	35.0410	1.9384	-34.6881	0.1570;
	3503	83	0.000257	0.001165	0.002	405	405	405	1	0	1	0	0	85.0213	46.0701	-85.0000	-46.2000;
	2137	84	0.045603	0.11741	0.001	0	0	0	1	0	1	0	0	29.4372	8.2662	-29.0282	-7.3152;
	3822	84	0.008566	0.024691	0	0	0	0	1	0	1	0	0	-29.9447	-8.1747	30.0282	8.4152;
	5130	85	0.047317	0.131595	0.0015	0	0	0	1	0	1	0	0	2.3026	-0.9553	-2.3000	0.8000;
	2821	86	0.040494	0.128889	0.0064	0	0	0	1	0	1	0	0	29.6336	-5.4401	-29.2820	5.8957;
	3530	86	0.037778	0.097037	0.0045	0	0	0	1	0	1	0	0	1.0198	1.7348	-1.0180	-2.1957;
	3791	87	0.032071	0.058705	0.0006	0	0	0	1	0	1	0	0	-3.6475	-1.1992	3.6522	1.1474;
	4371	87	0.062887	0.204157	0.002	0	0	0	1	0	1	0	0	7.3457	2.2112	-7.3094	-2.2965;
	3791	87	0.032026	0.058624	0.0006	0	0	0	1	0	1	0	0	-3.6525	-1.2008	3.6572	1.1491;
	1624	88	0.075838	0.224742	0.0027	0	0	0	1	0	1	0	0	2.2756	0.7641	-2.2714	-1.0391;
	1713	88	0.028471	0.089695	0.001	0	0	0	1	0	1	0	0	-0.0000	-0.0000	0.0000	-0.1061;
	3663	88	0.080373	0.255732	0.003	0	0	0	1	0	1	0	0	5.2706	-5.3183	-5.2287	5.1361;
	5588	88	0.000252	0.000504	0	0	0	0	1	0	1	0	0	4.0000	0.1910	-4.0000	-0.1910;
	2507	89	0.033531	0.087235	0.0166	0	0	0	1	0	1	0	0	14.7081	-10.7429	-14.6132	9.1492;
	4252	89	0.03037	0.08321	0.0039	0	0	0	1	0	1	0	0	3.0938	3.8328	-3.0868	-4.2492;
	5131	90	0.000444	0.001136	0	0	0	0	1	0	1	0	0	0.7000	-0.3000	-0.7000	0.3000;
	3747	91	0.057284	0.130864	0	0	0	0	1	0	1	0	0	0.0000	0.0000	0.0000	0.0000;
	649	92	0.054749	0.157445	0.0027	0	0	0	1	0	1	0	0	21.1376	-1.3621	-20.9121	1.7192;
	4079	92	0.038549	0.103049	0.0012	0	0	0	1	0	1	0	0	-10.0000	1.0000	10.0366	-1.0302;
...
];

%%-----  OPF Data  -----%%
%% generator cost data
%	1	startup	shutdown	n	x1	y1	...	xn	yn
%	2	startup	shutdown	n	c(n-1)	...	c0
mpc.gencost = [
	2	0	0	3	0	2	0;
	2	0	0	3	0	2	0;
	2	0	0	3	0	2	0;
	2	0	0	3	0	2	0;
	2	0	0	3	0	2	0;
	2	0	0	3	0	2	0;
	2	0	0	3	0	2	0;
	2	0	0	3	0	2	0;
	2	0	0	3	0	2	0;
	2	0	0	3	0	2	0;
	2	0	0	3	0	2	0;
	2	0	0	3	0	2	0;
	2	0	0	3	0	2	0;
	2	0	0	3	0	2	0;
	2	0	0	3	0	2	0;
	2	0	0	3	0	2	0;
	2	0	0	3	0	2	0;
	2	0	0	3	0	2	0;
	2	0	0	3	0	2	0;
	2	0	0	3	0	2	0;
	2	0	0	3	0	1	0;
	2	0	0	3	0	2	0;
	2	0	0	3	0	2	0;
	2	0	0	3	0	2	0;
	2	0	0	3	0	1	0;
	2	0	0	3	0	2	0;
	2	0	0	3	0	2	0;
	2	0	0	3	0	1	0;
	2	0	0	3	0	2	0;
	2	0	0	3	0	2	0;
	2	0	0	3	0	2	0;
	2	0	0	3	0	2	0;
	2	0	0	3	0	2	0;
	2	0	0	3	0	2	0;
	2	0	0	3	0	2	0;
	2	0	0	3	0	2	0;
	2	0	0	3	0	2	0;
	2	0	0	3	0	2	0;
	2	0	0	3	0	2	0;
	2	0	0	3	0	2	0;
	2	0	0	3	0	2	0;
	2	0	0	3	0	2	0;
	2	0	0	3	0	2	0;
	2	0	0	3	0	2	0;
	2	0	0	3	0	2	0;
	2	0	0	3	0	2	0;
	2	0	0	3	0	2	0;
	2	0	0	3	0	2	0;
	2	0	0	3	0	2	0;
	2	0	0	3	0	2	0;
	2	0	0	3	0	2	0;
	2	0	0	3	0	2	0;
	2	0	0	3	0	2	0;
	2	0	0	3	0	2	0;
	2	0	0	3	0	2	0;
	2	0	0	3	0	2	0;
	2	0	0	3	0	2	0;
	2	0	0	3	0	2	0;
	2	0	0	3	0	2	0;
	2	0	0	3	0	2	0;
	2	0	0	3	0	2	0;
	2	0	0	3	0	2	0;
	2	0	0	3	0	2	0;
	2	0	0	3	0	2	0;
	2	0	0	3	0	2	0;
	2	0	0	3	0	1	0;
	2	0	0	3	0	1	0;
	2	0	0	3	0	2	0;
	2	0	0	3	0	2	0;
	2	0	0	3	0	2	0;
	2	0	0	3	0	2	0;
	2	0	0	3	0	2	0;
	2	0	0	3	0	2	0;
	2	0	0	3	0	2	0;
	2	0	0	3	0	2	0;
	2	0	0	3	0	2	0;
	2	0	0	3	0	2	0;
	2	0	0	3	0	1	0;
	2	0	0	3	0	2	0;
	2	0	0	3	0	2	0;
	2	0	0	3	0	2	0;
	2	0	0	3	0	2	0;
	2	0	0	3	0	1	0;
	2	0	0	3	0	2	0;
	2	0	0	3	0	2	0;
	2	0	0	3	0	2	0;
	2	0	0	3	0	2	0;
	2	0	0	3	0	2	0;
	2	0	0	3	0	2	0;
	2	0	0	3	0	2	0;
	2	0	0	3	0	2	0;
	2	0	0	3	0	1	0;
	2	0	0	3	0	1	0;
	2	0	0	3	0	1	0;
	2	0	0	3	0	2	0;
	2	0	0	3	0	2	0;
	2	0	0	3	0	2	0;
	2	0	0	3	0	2	0;
	2	0	0	3	0	2	0;
	2	0	0	3	0	2	0;
	2	0	0	3	0	2	0;
	2	0	0	3	0	2	0;
	2	0	0	3	0	2	0;
	2	0	0	3	0	2	0;
	2	0	0	3	0	2	0;
	2	0	0	3	0	2	0;
	2	0	0	3	0	2	0;
	2	0	0	3	0	1	0;
	2	0	0	3	0	2	0;
	2	0	0	3	0	2	0;
	2	0	0	3	0	2	0;
	2	0	0	3	0	1	0;
	2	0	0	3	0	2	0;
	2	0	0	3	0	1	0;
	2	0	0	3	0	2	0;
	2	0	0	3	0	2	0;
	2	0	0	3	0	2	0;
	2	0	0	3	0	2	0;
	2	0	0	3	0	2	0;
	2	0	0	3	0	1	0;
	2	0	0	3	0	2	0;
	2	0	0	3	0	2	0;
	2	0	0	3	0	2	0;
	2	0	0	3	0	2	0;
	2	0	0	3	0	2	0;
	2	0	0	3	0	2	0;
	2	0	0	3	0	2	0;
	2	0	0	3	0	2	0;
	2	0	0	3	0	2	0;
	2	0	0	3	0	2	0;
	2	0	0	3	0	2	0;
	2	0	0	3	0	2	0;
	2	0	0	3	0	2	0;
	2	0	0	3	0	2	0;
	2	0	0	3	0	1	0;
	2	0	0	3	0	2	0;
	2	0	0	3	0	2	0;
	2	0	0	3	0	2	0;
	2	0	0	3	0	2	0;
	2	0	0	3	0	2	0;
	2	0	0	3	0	2	0;
	2	0	0	3	0	1	0;
	2	0	0	3	0	2	0;
	2	0	0	3	0	2	0;
	2	0	0	3	0	1	0;
	2	0	0	3	0	1	0;
	2	0	0	3	0	1	0;
	2	0	0	3	0	1	0;
	2	0	0	3	0	1	0;
	2	0	0	3	0	1	0;
	2	0	0	3	0	2	0;
	2	0	0	3	0	2	0;
	2	0	0	3	0	2	0;
	2	0	0	3	0	2	0;
	2	0	0	3	0	1	0;
	2	0	0	3	0	1	0;
	2	0	0	3	0	2	0;
	2	0	0	3	0	1	0;
	2	0	0	3	0	2	0;
	2	0	0	3	0	2	0;
	2	0	0	3	0	2	0;
	2	0	0	3	0	2	0;
	2	0	0	3	0	2	0;
	2	0	0	3	0	1	0;
	2	0	0	3	0	1	0;
	2	0	0	3	0	2	0;
	2	0	0	3	0	2	0;
	2	0	0	3	0	2	0;
	2	0	0	3	0	2	0;
	2	0	0	3	0	1	0;
	2	0	0	3	0	1	0;
	2	0	0	3	0	2	0;
	2	0	0	3	0	2	0;
	2	0	0	3	0	2	0;
	2	0	0	3	0	2	0;
	2	0	0	3	0	2	0;
	2	0	0	3	0	2	0;
	2	0	0	3	0	2	0;
	2	0	0	3	0	2	0;
	2	0	0	3	0	2	0;
	2	0	0	3	0	1	0;
	2	0	0	3	0	1	0;
	2	0	0	3	0	1	0;
	2	0	0	3	0	1	0;
	2	0	0	3	0	1	0;
	2	0	0	3	0	1	0;
	2	0	0	3	0	2	0;
	2	0	0	3	0	1	0;
	2	0	0	3	0	2	0;
	2	0	0	3	0	1	0;
	2	0	0	3	0	1	0;
	2	0	0	3	0	1	0;
	2	0	0	3	0	1	0;
	2	0	0	3	0	2	0;
	2	0	0	3	0	2	0;
	2	0	0	3	0	2	0;
	2	0	0	3	0	2	0;
	2	0	0	3	0	2	0;
	2	0	0	3	0	2	0;
	2	0	0	3	0	2	0;
...
];
